
  -INDIGO-09092615372D

  2  1  0  0  0  0  0  0  0  0999 V2000
   11.9004  -11.1203    0.0000 C   0  0  0  0  0  0  0  0  0  1  0  0
   12.6985  -11.5811    0.0000 S   0  0  0  0  0  0  0  0  0  2  0  0
  1  2  1  0  0  0  2
M  END
$$$$

  -INDIGO-09092615372D

  9  9  0  0  0  0  0  0  0  0999 V2000
   18.2824  -11.9240    0.0000 C   0  0  0  0  0  0  0  0  0  3  0  0
   17.5184  -12.4791    0.0000 H   0  0  0  0  0  0  0  0  0  0  0  0
   18.2824  -10.9796    0.0000 C   0  0  0  0  0  0  0  0  0  5  0  0
   17.5184  -10.4245    0.0000 H   0  0  0  0  0  0  0  0  0  0  0  0
   19.1805  -10.6878    0.0000 C   0  0  0  0  0  0  0  0  0  7  0  0
   19.4723   -9.7897    0.0000 O   0  0  0  0  0  0  0  0  0  8  0  0
   19.7356  -11.4518    0.0000 N   0  0  0  0  0  0  0  0  0  9  0  0
   19.1805  -12.2158    0.0000 C   0  0  0  0  0  0  0  0  0 10  0  0
   19.4723  -13.1139    0.0000 O   0  0  0  0  0  0  0  0  0 11  0  0
  1  2  1  0  0  0  0
  1  3  2  0  0  0  8
  3  4  1  0  0  0  0
  3  5  1  0  0  0  2
  5  6  2  0  0  0  2
  5  7  1  0  0  0  2
  7  8  1  0  0  0  2
  8  9  2  0  0  0  2
  8  1  1  0  0  0  2
M  END
$$$$

  -INDIGO-09092615372D

 10 10  0  0  1  0  0  0  0  0999 V2000
   40.5282  -10.0411    0.0000 C   0  0  2  0  0  0  0  0  0  5  0  0
   39.7642  -10.5961    0.0000 S   0  0  0  0  0  0  0  0  0  2  0  0
   39.7642   -8.5416    0.0000 H   0  0  0  0  0  0  0  0  0  0  0  0
   41.4263   -8.8049    0.0000 C   0  0  0  0  0  0  0  0  0 10  0  0
   41.7181   -7.9068    0.0000 O   0  0  0  0  0  0  0  0  0 11  0  0
   41.9814   -9.5689    0.0000 N   0  0  0  0  0  0  0  0  0  9  0  0
   41.4263  -10.3329    0.0000 C   0  0  0  0  0  0  0  0  0  7  0  0
   41.7181  -11.2310    0.0000 O   0  0  0  0  0  0  0  0  0  8  0  0
   37.7342  -11.0493    0.0000 C   0  0  0  0  0  0  0  0  0  1  0  0
   40.5282   -9.0967    0.0000 C   0  0  0  0  0  0  0  0  0  3  0  0
  4  5  2  0  0  0  2
  4  6  1  0  0  0  2
  6  7  1  0  0  0  2
  7  8  2  0  0  0  2
  7  1  1  0  0  0  2
  9  2  1  0  0  0  2
 10  3  1  0  0  0  0
 10  4  1  0  0  0  2
  1 10  1  0  0  0  8
  1  2  1  1  0  0  0
M  END
$$$$
